REMARK SMILES COc1cc2c(cc1-c1cc(CCC(:O):O)ccc1O)C(C)(C)CCC2(C)C
REMARK SMILES IDX 17 1 18 2 10 3 11 4 19 5 9 6 8 7 3 8 4 9 5 10 7 11 6 12
REMARK SMILES IDX 26 13 21 14 27 15 28 16 25 17 22 18 23 19 24 20 2 21 1 22
REMARK SMILES IDX 20 23 12 25 13 26 14 27 15 28 16 29
REMARK H PARENT 20 24
REMARK Flexibility Score: inf
ROOT
ATOM      1  C   UNL     1      -5.759 -17.740  28.445  1.00  0.00     0.007 A 
ATOM      2  C   UNL     1      -4.489 -17.200  28.156  1.00  0.00     0.047 A 
ATOM      3  C   UNL     1      -4.853 -18.669  30.485  1.00  0.00     0.016 A 
ATOM      4  C   UNL     1      -5.945 -18.500  29.611  1.00  0.00    -0.047 A 
ATOM      5  C   UNL     1      -3.400 -17.394  29.036  1.00  0.00     0.123 A 
ATOM      6  C   UNL     1      -3.575 -18.144  30.210  1.00  0.00     0.027 A 
ENDROOT
BRANCH   6   7
ATOM      7  C   UNL     1      -2.516 -18.344  31.124  1.00  0.00     0.028 A 
ATOM      8  C   UNL     1      -1.313 -18.971  30.757  1.00  0.00     0.127 A 
ATOM      9  C   UNL     1      -0.281 -19.152  31.693  1.00  0.00     0.051 A 
ATOM     10  C   UNL     1      -0.408 -18.710  33.017  1.00  0.00    -0.035 A 
ATOM     11  C   UNL     1      -2.653 -17.912  32.447  1.00  0.00     0.017 A 
ATOM     12  C   UNL     1      -1.621 -18.083  33.402  1.00  0.00    -0.038 A 
ATOM     13  C   UNL     1       0.770 -18.967  34.000  1.00  0.00    -0.010 C 
ATOM     14  C   UNL     1      -1.880 -17.572  34.839  1.00  0.00    -0.010 C 
ATOM     15  C   UNL     1       0.820 -20.476  34.352  1.00  0.00     0.016 C 
ATOM     16  C   UNL     1       2.118 -18.554  33.386  1.00  0.00     0.016 C 
ATOM     17  C   UNL     1       0.561 -18.144  35.278  1.00  0.00     0.012 C 
ATOM     18  C   UNL     1      -1.754 -16.039  34.849  1.00  0.00     0.016 C 
ATOM     19  C   UNL     1      -3.285 -17.969  35.281  1.00  0.00     0.016 C 
ATOM     20  C   UNL     1      -0.874 -18.212  35.814  1.00  0.00     0.012 C 
BRANCH   8  21
ATOM     21  O   UNL     1      -1.137 -19.396  29.477  1.00  0.00    -0.496 OA
ATOM     22  C   UNL     1      -0.876 -20.774  29.323  1.00  0.00     0.278 C 
ENDBRANCH   8  21
ENDBRANCH   6   7
BRANCH   5  23
ATOM     23  O   UNL     1      -2.163 -16.855  28.756  1.00  0.00    -0.507 OA
ATOM     24  H   UNL     1      -1.408 -16.998  29.380  1.00  0.00     0.293 HD
ENDBRANCH   5  23
BRANCH   4  25
ATOM     25  C   UNL     1      -7.176 -19.041  30.043  1.00  0.00     0.047 C 
BRANCH  25  26
ATOM     26  C   UNL     1      -8.407 -18.430  29.742  1.00  0.00     0.132 C 
BRANCH  26  27
ATOM     27  C   UNL     1      -9.661 -18.865  30.198  1.00  0.00     0.355 C 
ATOM     28  O   UNL     1      -9.757 -19.867  30.955  1.00  0.00    -0.247 OA
ATOM     29  O   UNL     1     -10.647 -18.201  29.819  1.00  0.00    -0.247 OA
ENDBRANCH  26  27
ENDBRANCH  25  26
ENDBRANCH   4  25
TORSDOF 6
